40
Lattice="8.18968932 0.0 0.0 4.09484466 7.092479000222105 0.0 0.0 0.0 22.460967054999998" Properties=species:S:1:pos:R:3:tags:I:1:forces:R:3 energy=-216347.28498816842 free_energy=-216347.28498816842 pbc="T T F"
Ru      -0.00000000       1.57610644       8.00000000        4      -0.00903434      -0.00054353       0.53595648
Ru       2.72989644       1.57610644       8.00000000        4      -0.00323599      -0.05541807       0.54712998
Ru       5.45979288       1.57610644       8.00000000        4       0.01637844       0.00484550       0.53475063
Ru       1.36494822       3.94026611       8.00000000        4      -0.03068406      -0.01723848       0.56284868
Ru       4.09484466       3.94026611       8.00000000        4       0.03468238      -0.01328875       0.56076428
Ru       6.82474110       3.94026611       8.00000000        4      -0.00121150      -0.01070916       0.53635912
Ru       2.72989644       6.30442578       8.00000000        4       0.00786218       0.03893242       0.55541408
Ru       5.45979288       6.30442578       8.00000000        4       0.04202005       0.02839603       0.54713230
Ru       8.18968932       6.30442578       8.00000000        4      -0.04318245       0.02815024       0.54700785
Ru       0.00000000       0.00000000      10.15365568        3       0.02192483       0.05222656      -0.48673323
Ru       2.72989644       0.00000000      10.15365568        3      -0.00378184       0.00473083      -0.55855056
Ru       5.45979288       0.00000000      10.15365568        3      -0.01220863       0.05394920      -0.48133031
Ru       1.36494822       2.36415967      10.15365568        3      -0.03847450      -0.04880571      -0.48320850
Ru       4.09484466       2.36415967      10.15365568        3       0.04149041      -0.04436618      -0.48030161
Ru       6.82474110       2.36415967      10.15365568        3       0.00756239      -0.00248549      -0.44142910
Ru       2.72989644       4.72831933      10.15365568        3       0.00439144       0.00759247      -0.56668194
Ru       5.45979288       4.72831933      10.15365568        3       0.04633874      -0.00037255      -0.49371223
Ru       8.18968932       4.72831933      10.15365568        3      -0.04403168      -0.00788763      -0.48889347
Ru      -0.00940579       1.58156691      12.30601926        2      -0.01662501       0.00813471       0.03297723
Ru       2.72947403       1.57903411      12.31589104        2       0.00062478      -0.00020749       0.01036360
Ru       5.47005594       1.58233009      12.30659325        2       0.01878088       0.00879626       0.03643047
Ru       1.36033803       3.93784816      12.30197895        2      -0.00785883      -0.00491055       0.01330186
Ru       4.09949561       3.93789219      12.30175016        2       0.00917987      -0.00476863       0.01375823
Ru       6.82557262       3.93017394      12.30439533        2       0.00172238      -0.02591363       0.03287850
Ru       2.73063348       6.30981296      12.30216750        2       0.00079781       0.00927166       0.01378883
Ru       5.45753260       6.30293682      12.31669874        2       0.00222298      -0.00137374       0.00890553
Ru       8.19245549       6.30316305      12.31693223        2      -0.00084924      -0.00177278       0.00902097
Ru       0.00763010      -0.01514069      14.39197686        1      -0.00618556      -0.01999316       0.02934683
Ru       2.72953483       0.00005598      14.38302658        1       0.00095054      -0.00040366       0.00165476
Ru       5.45197036      -0.01471354      14.39259272        1       0.00132463      -0.02657544       0.02713234
Ru       1.38071145       2.36519877      14.39177864        1       0.01714386       0.01343761       0.02852819
Ru       4.07882762       2.36588965      14.39114116        1      -0.01275370       0.01338825       0.03035522
Ru       6.82311036       2.35280170      14.56394731        1      -0.00226437      -0.00712118       0.15883015
Ru       2.73038208       4.72863889      14.39173036        1       0.00083227      -0.00056796       0.00780484
Ru       5.45119071       4.74139210      14.39156137        1      -0.01558191       0.00439479       0.02883955
Ru       8.19917034       4.73952818      14.39161203        1       0.01764754      -0.00360931       0.03146079
C        6.80939237       2.31500235      16.82136575        0       0.05609890       0.14844804      -0.14830406
H        7.83111887       2.27160551      17.21884216        0      -0.00746494      -0.01973450      -0.27624601
H        6.25416759       1.48932766      17.27555203        0      -0.07153040      -0.10216021      -0.32924596
H        6.36474459       3.24668857      17.18934069        0      -0.02301883      -0.00446678      -0.20810432
