41
Lattice="8.18968932 0.0 0.0 4.09484466 7.092479000222105 0.0 0.0 0.0 22.460967054999998" Properties=species:S:1:pos:R:3:tags:I:1:forces:R:3 energy=-216605.4071046758 free_energy=-216605.4071046758 pbc="T T F"
Ru      -0.00000000       1.57610644       8.00000000        4       0.03054239      -0.02543978       0.52780711
Ru       2.72989644       1.57610644       8.00000000        4      -0.00285418      -0.08383108       0.54731253
Ru       5.45979288       1.57610644       8.00000000        4      -0.02610287      -0.01946094       0.52878336
Ru       1.36494822       3.94026611       8.00000000        4      -0.04983621      -0.03102447       0.60931057
Ru       4.09484466       3.94026611       8.00000000        4       0.05212217      -0.02766790       0.61046088
Ru       6.82474110       3.94026611       8.00000000        4      -0.00003780       0.03265918       0.52746901
Ru       2.72989644       6.30442578       8.00000000        4       0.00770123       0.06079502       0.60798799
Ru       5.45979288       6.30442578       8.00000000        4       0.06490724       0.04213472       0.54794502
Ru       8.18968932       6.30442578       8.00000000        4      -0.06927169       0.03934765       0.54843173
Ru      -0.00000000      -0.00000000      10.15365568        3       0.02925144      -0.00180671      -0.62651742
Ru       2.72989644       0.00000000      10.15365568        3      -0.00543326      -0.00214481      -0.51770371
Ru       5.45979288      -0.00000000      10.15365568        3      -0.02294915      -0.00172058      -0.62353700
Ru       1.36494822       2.36415967      10.15365568        3       0.01246137      -0.03295126      -0.62510203
Ru       4.09484466       2.36415967      10.15365568        3      -0.01235415      -0.02669782      -0.62423299
Ru       6.82474110       2.36415967      10.15365568        3       0.00466398      -0.00755853      -0.36572837
Ru       2.72989644       4.72831933      10.15365568        3       0.00341622       0.00323676      -0.46309270
Ru       5.45979288       4.72831933      10.15365568        3       0.01335277       0.02966590      -0.62375091
Ru       8.18968932       4.72831933      10.15365568        3      -0.01458407       0.02242928      -0.62291145
Ru      -0.00486082       1.57837470      12.28491251        2      -0.02321629       0.01267477       0.03115971
Ru       2.72972721       1.58267061      12.31962979        2       0.00124416      -0.00307581      -0.00430480
Ru       5.46507691       1.57856001      12.28484553        2       0.02277175       0.01240532       0.02886757
Ru       1.35505438       3.93413565      12.29306906        2      -0.00136088      -0.00119325      -0.00016506
Ru       4.10471696       3.93460219      12.29277852        2       0.00427986      -0.00138531       0.00183268
Ru       6.82488056       3.93455747      12.28479916        2      -0.00072402      -0.02443885       0.02879121
Ru       2.73037089       6.31574954      12.29276782        2       0.00073585      -0.00044172       0.00193450
Ru       5.45365314       6.30110962      12.31952195        2       0.00194375      -0.00198592      -0.00166787
Ru       8.19586469       6.30088835      12.31977317        2      -0.00107164      -0.00083587      -0.00315757
Ru       0.01066819      -0.01660987      14.38738143        1      -0.02530583       0.00173575       0.01864410
Ru       2.72960812       0.00008311      14.38557912        1      -0.00108115      -0.00263949      -0.01261949
Ru       5.44886792      -0.01683832      14.38665525        1       0.02422185       0.00058313       0.01701453
Ru       1.38503996       2.36225067      14.38664241        1      -0.01401945       0.01957432       0.01804734
Ru       4.07444656       2.36247294      14.38688353        1       0.01214486       0.02074237       0.01685461
Ru       6.82451487       2.36446833      14.71245335        1      -0.00614674       0.01185896       0.40711850
Ru       2.73011405       4.72852368      14.38782372        1       0.00184605      -0.00053042      -0.02575551
Ru       5.45053594       4.74701696      14.38687968        1      -0.01146558      -0.01826460       0.01515717
Ru       8.19929446       4.74635928      14.38732069        1       0.01181293      -0.02121134       0.01742308
C        6.82354089       2.36575793      17.91440286        0      -0.04350229       0.07586683       0.34982995
C        6.81910040       2.37365197      16.45224548        0      -0.01005738       0.01757735      -0.35128982
H        6.34254223       3.25797223      18.33725226        0      -0.01385619       0.02571463      -0.20901603
H        6.29230807       1.49657644      18.31693413        0      -0.05659487      -0.09183363      -0.15418494
H        7.84157651       2.33184740      18.31680575        0       0.11240503      -0.00086158      -0.15344601
