40
Lattice="8.18968932 0.0 0.0 4.09484466 7.092479000222105 0.0 0.0 0.0 22.460967054999998" Properties=species:S:1:pos:R:3:tags:I:1:forces:R:3 energy=-216908.46901306923 free_energy=-216908.46901306923 pbc="T T F"
Ru      -0.00000000       1.57610644       8.00000000        4       0.03044083       0.05597883       0.61494308
Ru       2.72989644       1.57610644       8.00000000        4      -0.00325733       0.04366299       0.56540230
Ru       5.45979288       1.57610644       8.00000000        4      -0.02724984       0.06043069       0.61642841
Ru       1.36494822       3.94026611       8.00000000        4       0.01067111      -0.08733780       0.54252899
Ru       4.09484466       3.94026611       8.00000000        4      -0.00942129      -0.08155102       0.54353455
Ru       6.82474110       3.94026611       8.00000000        4      -0.00183551       0.05041830       0.46261731
Ru       2.72989644       6.30442578       8.00000000        4       0.00513578       0.02637489       0.50425401
Ru       5.45979288       6.30442578       8.00000000        4       0.09483308      -0.01075338       0.60206674
Ru       8.18968932       6.30442578       8.00000000        4      -0.10083070      -0.01199085       0.60442264
Ru      -0.00000000       0.00000000      10.15365568        3       0.00731427       0.01455347      -0.46558025
Ru       2.72989644      -0.00000000      10.15365568        3      -0.00722171       0.03193439      -0.84125827
Ru       5.45979288      -0.00000000      10.15365568        3      -0.00223506       0.01526618      -0.46303331
Ru       1.36494822       2.36415967      10.15365568        3       0.00119582      -0.02417531      -0.72382622
Ru       4.09484466       2.36415967      10.15365568        3      -0.00560038      -0.01876083      -0.72354185
Ru       6.82474110       2.36415967      10.15365568        3       0.00283438      -0.02716191      -0.52013931
Ru       2.72989644       4.72831933      10.15365568        3       0.00265389      -0.00314137      -0.52191363
Ru       5.45979288       4.72831933      10.15365568        3      -0.02527266       0.03582138      -0.53589375
Ru       8.18968932       4.72831933      10.15365568        3       0.02110696       0.03048171      -0.53495607
Ru       0.00140719       1.57294691      12.30697907        2      -0.01144244       0.00595827       0.04657836
Ru       2.72950064       1.57907819      12.30879797        2       0.00002880       0.00658022      -0.02107919
Ru       5.45860360       1.57316908      12.30711670        2       0.01057495       0.00654397       0.04780735
Ru       1.36028146       3.93901748      12.29695266        2      -0.04972256       0.00709316       0.03623327
Ru       4.09948016       3.93942954      12.29682896        2       0.05000950       0.00684633       0.03811815
Ru       6.82460208       3.95606004      12.27946142        2      -0.00071451       0.04114871       0.05988125
Ru       2.73013439       6.30425616      12.29090910        2      -0.00031316      -0.01966508      -0.01450436
Ru       5.46222769       6.30566603      12.29845588        2       0.01668440      -0.05344424       0.05860341
Ru       8.18672635       6.30560388      12.29856566        2      -0.01797253      -0.05265928       0.05724098
Ru       0.00660859      -0.01546860      14.38512995        1       0.01826280      -0.09366066      -0.00080038
Ru       2.72936745       0.02759137      14.38612105        1       0.00064843       0.07288640       0.00688310
Ru       5.45339102      -0.01551799      14.38465675        1      -0.02043204      -0.09559027      -0.00082790
Ru       1.39091598       2.34940927      14.38132805        1       0.06592694      -0.06014479      -0.00665787
Ru       4.06834898       2.34966507      14.38102941        1      -0.06815146      -0.06263490      -0.00393199
Ru       6.82495280       2.34365454      14.41584139        1       0.00094668      -0.06666948       0.07858140
Ru       2.73021840       4.72921024      14.38737033        1      -0.00005554      -0.00260119      -0.00140716
Ru       5.45310366       4.72418954      14.46503807        1      -0.07391767       0.01500110       0.29573780
Ru       8.19659599       4.72386787      14.46492075        1       0.07950571       0.01642549       0.29283168
O        6.82446079       4.53777466      17.20097319        0      -0.00107241       0.21433616      -0.14290243
C        6.82677924       3.98361823      15.91850373        0       0.00668101       0.14218021      -0.06969978
H        6.82493279       2.80741110      16.17327799        0       0.00321234      -0.02977363      -0.11224074
H        6.82918231       3.89514707      17.93601003        0      -0.00194967      -0.09820766      -0.37050008
