39
Lattice="8.18968932 0.0 0.0 4.09484466 7.092479000222105 0.0 0.0 0.0 22.460967054999998" Properties=species:S:1:pos:R:3:tags:I:1:forces:R:3 energy=-216892.29340797485 free_energy=-216892.29340797485 pbc="T T F"
Ru       0.00000000       1.57610644       8.00000000        4       0.02413495       0.02818495       0.50495078
Ru       2.72989644       1.57610644       8.00000000        4      -0.02305045      -0.09908183       0.55538836
Ru       5.45979288       1.57610644       8.00000000        4      -0.00265595      -0.02598151       0.51148344
Ru       1.36494822       3.94026611       8.00000000        4      -0.07986258      -0.02992738       0.60040118
Ru       4.09484466       3.94026611       8.00000000        4       0.02683229      -0.02958260       0.57900498
Ru       6.82474110       3.94026611       8.00000000        4       0.03716504       0.00587163       0.51966032
Ru       2.72989644       6.30442578       8.00000000        4       0.01145324       0.05514091       0.59594366
Ru       5.45979288       6.30442578       8.00000000        4       0.04379077       0.05500952       0.53687848
Ru       8.18968932       6.30442578       8.00000000        4      -0.05898342       0.04641664       0.55655385
Ru       0.00000000       0.00000000      10.15365568        3       0.02729457       0.06728526      -0.50597973
Ru       2.72989644      -0.00000000      10.15365568        3      -0.00404563       0.03949754      -0.58693477
Ru       5.45979288       0.00000000      10.15365568        3      -0.01932081      -0.05464443      -0.68374555
Ru       1.36494822       2.36415967      10.15365568        3      -0.00422561      -0.04719697      -0.49371737
Ru       4.09484466       2.36415967      10.15365568        3      -0.06979182       0.03096431      -0.62787085
Ru       6.82474110       2.36415967      10.15365568        3      -0.00319331      -0.02063593      -0.41584380
Ru       2.72989644       4.72831933      10.15365568        3       0.00117757       0.01330109      -0.47223812
Ru       5.45979288       4.72831933      10.15365568        3       0.00564023       0.03848916      -0.58128683
Ru       8.18968932       4.72831933      10.15365568        3       0.04139142       0.00544842      -0.64607477
Ru      -0.00852687       1.58640890      12.30316499        2       0.00691730      -0.00642879      -0.00210599
Ru       2.73427876       1.58455856      12.31172765        2      -0.00117577      -0.01012732      -0.00559626
Ru       5.45017744       1.57852019      12.27341330        2       0.00484679      -0.00031136       0.01661550
Ru       1.36352242       3.93584395      12.29789789        2       0.00252482       0.00364634       0.00778453
Ru       4.10325150       3.93222931      12.29473429        2      -0.00203040       0.00167353       0.00729422
Ru       6.82230438       3.93693590      12.28897198        2       0.00339283       0.00235436       0.00557081
Ru       2.73127028       6.31549143      12.30773239        2      -0.00092663      -0.00710190       0.00495014
Ru       5.45860736       6.30851770      12.30753669        2       0.00544611      -0.00022471       0.00041549
Ru       8.18957891       6.30845323      12.31749755        2      -0.01280281      -0.00447192       0.00150898
Ru      -0.00211529      -0.03120620      14.38073798        1       0.00519363      -0.00736030       0.00280713
Ru       2.73739904      -0.00597573      14.38095420        1       0.00484087      -0.00562043      -0.00280636
Ru       5.46150013      -0.00265320      14.37973867        1       0.00233482      -0.00701834      -0.00050599
Ru       1.38668671       2.37837827      14.42664904        1       0.01203816      -0.00252534      -0.01241946
Ru       4.12791235       2.37687249      14.38972326        1       0.00670904       0.00099065       0.00215998
Ru       6.84216967       2.36483923      14.52970182        1       0.01473474       0.01273313       0.00944315
Ru       2.74552367       4.74132655      14.37817763        1       0.00554356      -0.00066180       0.00210162
Ru       5.45547499       4.73651167      14.39117546        1       0.00552453      -0.00643264       0.00841573
Ru       8.19006726       4.77230781      14.37752953        1      -0.00042963      -0.00396233       0.00620433
O        8.93708816       2.36668610      16.51091706        0       0.01273185      -0.04403220      -0.00001028
C        7.68034268       2.35152311      16.33558060        0      -0.00172675       0.00886105      -0.00482725
H        7.07352058       2.33550843      17.25982336        0      -0.02743701      -0.00253768       0.00642596
