42
Lattice="8.18968932 0.0 0.0 4.09484466 7.092479000222105 0.0 0.0 0.0 22.460967054999998" Properties=species:S:1:pos:R:3:tags:I:1:forces:R:3 energy=-217183.97971639308 free_energy=-217183.97971639308 pbc="T T F"
Ru      -0.00000000       1.57610644       8.00000000        4       0.00733099       0.06993118       0.55743625
Ru       2.72989644       1.57610644       8.00000000        4      -0.02388529      -0.01477202       0.60455069
Ru       5.45979288       1.57610644       8.00000000        4       0.00656403       0.05174217       0.55541305
Ru       1.36494822       3.94026611       8.00000000        4      -0.04795544      -0.11167587       0.59295655
Ru       4.09484466       3.94026611       8.00000000        4       0.04829920      -0.02010937       0.55673151
Ru       6.82474110       3.94026611       8.00000000        4       0.01138099       0.00651466       0.48105777
Ru       2.72989644       6.30442578       8.00000000        4       0.02375725       0.01405005       0.57731036
Ru       5.45979288       6.30442578       8.00000000        4       0.06423516      -0.02853745       0.55691611
Ru       8.18968932       6.30442578       8.00000000        4      -0.12098917       0.01556057       0.59259248
Ru       0.00000000       0.00000000      10.15365568        3      -0.02998729      -0.01711763      -0.44973428
Ru       2.72989644       0.00000000      10.15365568        3       0.04246228      -0.01873640      -0.60291778
Ru       5.45979288       0.00000000      10.15365568        3      -0.05950381       0.01026153      -0.35574658
Ru       1.36494822       2.36415967      10.15365568        3       0.00363348       0.04631328      -0.60377910
Ru       4.09484466       2.36415967      10.15365568        3      -0.04255484      -0.02418457      -0.45847989
Ru       6.82474110       2.36415967      10.15365568        3       0.00747343       0.01563308      -0.35534137
Ru       2.72989644       4.72831933      10.15365568        3      -0.02168160      -0.05509720      -0.35635104
Ru       5.45979288       4.72831933      10.15365568        3       0.01628614      -0.00144650      -0.35574760
Ru       8.18968932       4.72831933      10.15365568        3      -0.04276516      -0.02493122      -0.37268603
Ru      -0.01117729       1.57555241      12.31207619        2      -0.02296586      -0.00143725       0.00269837
Ru       2.71558586       1.56787265      12.32394064        2      -0.02138746      -0.01200988       0.00536204
Ru       5.46082912       1.57904914      12.32116954        2      -0.01867264       0.00189747       0.00615394
Ru       1.34974240       3.93919276      12.31437213        2      -0.01152111      -0.01184019       0.00075848
Ru       4.09802807       3.93965712      12.32143206        2      -0.00717621      -0.01689369       0.00779224
Ru       6.81778548       3.93612568      12.31457111        2      -0.01916732      -0.01130103       0.02574343
Ru       2.72793047       6.30338088      12.29855111        2      -0.00970874      -0.00489847       0.00269169
Ru       5.45382088       6.29526364      12.31205041        2      -0.01230993      -0.01778278       0.00268423
Ru       8.18126061       6.29178329      12.31453700        2      -0.01566419      -0.00364557       0.00154575
Ru      -0.01739897      -0.00981958      14.40377999        1      -0.01599072      -0.00796836       0.00587831
Ru       2.71631859       0.01937420      14.38962838        1      -0.02061562      -0.01455090       0.00857000
Ru       5.46169878      -0.01373010      14.39589154        1      -0.00630589       0.00236413       0.00499565
Ru       1.37464090       2.34296642      14.38985752        1      -0.02447664      -0.00926214       0.00940381
Ru       4.04298192       2.33458081      14.39254627        1      -0.02699273      -0.01377700       0.01096601
Ru       6.75176436       2.33749293      14.49545112        1      -0.01301415      -0.01471802       0.07295248
Ru       2.71873645       4.73693492      14.39575301        1      -0.00260324      -0.00578987       0.00431123
Ru       5.39978596       4.67972094      14.49330925        1      -0.02210917       0.00159331       0.06389500
Ru       8.17366287       4.71882562      14.47572560        1       0.03539098       0.01956558      -0.02138001
O        7.42219383       4.28806410      16.42058446        0       0.24069511       0.15005909      -0.05980900
C        5.78173261       3.33733127      17.79860162        0       0.16061990       0.09154516      -0.24675854
C        6.30767452       3.63748349      16.36735382        0       0.05775880       0.00839928      -0.15695299
H        4.84336907       2.79332980      17.89669607        0      -0.01964091      -0.01335637      -0.47407466
H        6.55800272       2.77680231      18.33943639        0      -0.03374573       0.00182008      -0.21852654
H        5.67971112       4.29113254      18.33645278        0      -0.01249710      -0.03141117      -0.22308125
